Circuit: * G:\Freelancing Career\Fiver Projects\PROJECT36_CHRIS_SAM\Draft1.asc

Fatal Error: Unknown subcircuit called in:
   xu1 0 n002 nc_01 nc_02 n003 opamp2
