Circuit: * G:\Freelancing Career\Fiver Projects\PROJECT36_CHRIS_SAM\power_supply.asc

WARNING: Node N007 is floating.
WARNING: Node N004 is floating.
WARNING: Node N005 is floating.
WARNING: Node N006 is floating.

.OP point found by inspection.

Date: Sun Dec 10 11:56:38 2023
Total elapsed time: 0.096 seconds.

tnom = 27
temp = 27
method = modified trap
totiter = 2871
traniter = 2871
tranpoints = 1281
accept = 1188
rejected = 93
matrix size = 17
fillins = 16
solver = Normal
Avg thread counts: 1.1/1.2/1.2/1.1
Matrix Compiler1: 2.05 KB object code size  0.9/0.8/[0.4]
Matrix Compiler2: 1.70 KB object code size  0.4/0.6/[0.3]

