Circuit: * G:\Freelancing Career\Fiver Projects\PROJECT36_CHRIS_SAM\trycircuit.asc

Direct Newton iteration for .op point succeeded.

Date: Mon Dec 11 17:19:50 2023
Total elapsed time: 0.516 seconds.

tnom = 27
temp = 27
method = modified trap
totiter = 40023
traniter = 40020
tranpoints = 20011
accept = 12015
rejected = 7996
matrix size = 6
fillins = 0
solver = Normal
Avg thread counts: 1.0/1.0/1.0/1.0
Matrix Compiler1: off  [0.3]/0.4/0.4
Matrix Compiler2: off  [0.2]/0.4/0.3

